* Copyright 2022 Google LLC
*
* Licensed under the Apache License, Version 2.0 (the "License");
* you may not use this file except in compliance with the License.
* You may obtain a copy of the License at
*
*      http://www.apache.org/licenses/LICENSE-2.0
*
* Unless required by applicable law or agreed to in writing, software
* distributed under the License is distributed on an "AS IS" BASIS,
* WITHOUT WARRANTIES OR CONDITIONS OF ANY KIND, either express or implied.
* See the License for the specific language governing permissions and
* limitations under the License.

* NGSPICE file created from gf180mcu_osu_sc_gp12t3v3__addf_1.ext - technology: gf180mcuC

.subckt gf180mcu_osu_sc_gp12t3v3__addf_1 A B CI S CO VDD VSS
X0 S a_161_21# VDD VDD pfet_03p3 w=1.7u l=0.3u
X1 VDD CI a_195_111# VDD pfet_03p3 w=1.7u l=0.3u
X2 a_195_21# B a_178_21# VSS nfet_03p3 w=0.85u l=0.3u
X3 a_76_111# B a_59_21# VDD pfet_03p3 w=1.7u l=0.3u
X4 VDD A a_76_111# VDD pfet_03p3 w=1.7u l=0.3u
X5 a_178_21# A a_161_21# VSS nfet_03p3 w=0.85u l=0.3u
X6 a_59_21# CI a_9_111# VDD pfet_03p3 w=1.7u l=0.3u
X7 a_9_111# B VDD VDD pfet_03p3 w=1.7u l=0.3u
X8 a_110_21# CI VSS VSS nfet_03p3 w=0.85u l=0.3u
X9 VDD A a_9_111# VDD pfet_03p3 w=1.7u l=0.3u
X10 a_59_21# CI a_9_21# VSS nfet_03p3 w=0.85u l=0.3u
X11 VSS B a_110_21# VSS nfet_03p3 w=0.85u l=0.3u
X12 VSS A a_9_21# VSS nfet_03p3 w=0.85u l=0.3u
X13 CO a_59_21# VSS VSS nfet_03p3 w=0.85u l=0.3u
X14 VSS CI a_195_21# VSS nfet_03p3 w=0.85u l=0.3u
X15 CO a_59_21# VDD VDD pfet_03p3 w=1.7u l=0.3u
X16 VSS A a_76_21# VSS nfet_03p3 w=0.85u l=0.3u
X17 a_161_21# a_59_21# a_110_21# VSS nfet_03p3 w=0.85u l=0.3u
X18 a_76_21# B a_59_21# VSS nfet_03p3 w=0.85u l=0.3u
X19 a_178_111# A a_161_21# VDD pfet_03p3 w=1.7u l=0.3u
X20 a_195_111# B a_178_111# VDD pfet_03p3 w=1.7u l=0.3u
X21 a_9_21# B VSS VSS nfet_03p3 w=0.85u l=0.3u
X22 a_110_21# A VSS VSS nfet_03p3 w=0.85u l=0.3u
X23 a_161_21# a_59_21# a_110_111# VDD pfet_03p3 w=1.7u l=0.3u
X24 a_110_111# CI VDD VDD pfet_03p3 w=1.7u l=0.3u
X25 VDD B a_110_111# VDD pfet_03p3 w=1.7u l=0.3u
X26 a_110_111# A VDD VDD pfet_03p3 w=1.7u l=0.3u
X27 S a_161_21# VSS VSS nfet_03p3 w=0.85u l=0.3u
.ends


******* EOF

* Copyright 2022 Google LLC
*
* Licensed under the Apache License, Version 2.0 (the "License");
* you may not use this file except in compliance with the License.
* You may obtain a copy of the License at
*
*      http://www.apache.org/licenses/LICENSE-2.0
*
* Unless required by applicable law or agreed to in writing, software
* distributed under the License is distributed on an "AS IS" BASIS,
* WITHOUT WARRANTIES OR CONDITIONS OF ANY KIND, either express or implied.
* See the License for the specific language governing permissions and
* limitations under the License.

* NGSPICE file created from gf180mcu_osu_sc_gp12t3v3__addh_1.ext - technology: gf180mcuC

.subckt gf180mcu_osu_sc_gp12t3v3__addh_1 A B S CO VDD VSS
X0 VDD B a_19_16# VDD pfet_03p3 w=1.7u l=0.3u
X1 a_19_16# A VDD VDD pfet_03p3 w=1.7u l=0.3u
X2 VDD a_19_16# CO VDD pfet_03p3 w=1.7u l=0.3u
X3 a_19_16# B a_42_21# VSS nfet_03p3 w=0.85u l=0.3u
X4 S a_91_21# VSS VSS nfet_03p3 w=0.85u l=0.3u
X5 VSS a_19_16# CO VSS nfet_03p3 w=0.85u l=0.3u
X6 S a_91_21# VDD VDD pfet_03p3 w=1.7u l=0.3u
X7 a_91_21# B a_91_111# VDD pfet_03p3 w=1.7u l=0.3u
X8 VDD a_19_16# a_91_21# VDD pfet_03p3 w=1.7u l=0.3u
X9 a_91_111# A VDD VDD pfet_03p3 w=1.7u l=0.3u
X10 a_91_21# A a_75_21# VSS nfet_03p3 w=0.85u l=0.3u
X11 a_42_21# A VSS VSS nfet_03p3 w=0.85u l=0.3u
X12 VSS a_19_16# a_75_21# VSS nfet_03p3 w=0.85u l=0.3u
X13 a_75_21# B a_91_21# VSS nfet_03p3 w=0.85u l=0.3u
.ends


******* EOF

* Copyright 2022 Google LLC
*
* Licensed under the Apache License, Version 2.0 (the "License");
* you may not use this file except in compliance with the License.
* You may obtain a copy of the License at
*
*      http://www.apache.org/licenses/LICENSE-2.0
*
* Unless required by applicable law or agreed to in writing, software
* distributed under the License is distributed on an "AS IS" BASIS,
* WITHOUT WARRANTIES OR CONDITIONS OF ANY KIND, either express or implied.
* See the License for the specific language governing permissions and
* limitations under the License.

* NGSPICE file created from gf180mcu_osu_sc_gp12t3v3__and2_1.ext - technology: gf180mcuC

.subckt gf180mcu_osu_sc_gp12t3v3__and2_1 A B Y VDD VSS
X0 Y a_12_21# VDD VDD pfet_03p3 w=1.7u l=0.3u
X1 VDD B a_12_21# VDD pfet_03p3 w=1.7u l=0.3u
X2 a_12_21# A VDD VDD pfet_03p3 w=1.7u l=0.3u
X3 Y a_12_21# VSS VSS nfet_03p3 w=0.85u l=0.3u
X4 a_28_21# A a_12_21# VSS nfet_03p3 w=0.85u l=0.3u
X5 VSS B a_28_21# VSS nfet_03p3 w=0.85u l=0.3u
.ends


******* EOF

* Copyright 2022 Google LLC
*
* Licensed under the Apache License, Version 2.0 (the "License");
* you may not use this file except in compliance with the License.
* You may obtain a copy of the License at
*
*      http://www.apache.org/licenses/LICENSE-2.0
*
* Unless required by applicable law or agreed to in writing, software
* distributed under the License is distributed on an "AS IS" BASIS,
* WITHOUT WARRANTIES OR CONDITIONS OF ANY KIND, either express or implied.
* See the License for the specific language governing permissions and
* limitations under the License.

* NGSPICE file created from gf180mcu_osu_sc_gp12t3v3__aoi21_1.ext - technology: gf180mcuC

.subckt gf180mcu_osu_sc_gp12t3v3__aoi21_1 A0 A1 B Y VDD VSS
X0 Y B a_9_111# VDD pfet_03p3 w=1.7u l=0.3u
X1 a_9_111# A1 VDD VDD pfet_03p3 w=1.7u l=0.3u
X2 VDD A0 a_9_111# VDD pfet_03p3 w=1.7u l=0.3u
X3 VSS B Y VSS nfet_03p3 w=0.85u l=0.3u
X4 a_28_21# A0 VSS VSS nfet_03p3 w=0.85u l=0.3u
X5 Y A1 a_28_21# VSS nfet_03p3 w=0.85u l=0.3u
.ends


******* EOF

* Copyright 2022 Google LLC
*
* Licensed under the Apache License, Version 2.0 (the "License");
* you may not use this file except in compliance with the License.
* You may obtain a copy of the License at
*
*      http://www.apache.org/licenses/LICENSE-2.0
*
* Unless required by applicable law or agreed to in writing, software
* distributed under the License is distributed on an "AS IS" BASIS,
* WITHOUT WARRANTIES OR CONDITIONS OF ANY KIND, either express or implied.
* See the License for the specific language governing permissions and
* limitations under the License.

* NGSPICE file created from gf180mcu_osu_sc_gp12t3v3__aoi22_1.ext - technology: gf180mcuC

.subckt gf180mcu_osu_sc_gp12t3v3__aoi22_1 Y A0 A1 B0 B1
X0 a_9_111# B1 Y VDD pfet_03p3 w=1.7u l=0.3u
X1 Y B0 a_9_111# VDD pfet_03p3 w=1.7u l=0.3u
X2 a_9_111# A1 VDD VDD pfet_03p3 w=1.7u l=0.3u
X3 VDD A0 a_9_111# VDD pfet_03p3 w=1.7u l=0.3u
X4 a_56_21# B0 Y VSS nfet_03p3 w=0.85u l=0.3u
X5 VSS B1 a_56_21# VSS nfet_03p3 w=0.85u l=0.3u
X6 a_28_21# A0 VSS VSS nfet_03p3 w=0.85u l=0.3u
X7 Y A1 a_28_21# VSS nfet_03p3 w=0.85u l=0.3u
.ends


******* EOF

* Copyright 2022 Google LLC
*
* Licensed under the Apache License, Version 2.0 (the "License");
* you may not use this file except in compliance with the License.
* You may obtain a copy of the License at
*
*      http://www.apache.org/licenses/LICENSE-2.0
*
* Unless required by applicable law or agreed to in writing, software
* distributed under the License is distributed on an "AS IS" BASIS,
* WITHOUT WARRANTIES OR CONDITIONS OF ANY KIND, either express or implied.
* See the License for the specific language governing permissions and
* limitations under the License.

* NGSPICE file created from gf180mcu_osu_sc_gp12t3v3__buf_1.ext - technology: gf180mcuC

.subckt gf180mcu_osu_sc_gp12t3v3__buf_1 A Y VDD VSS
X0 Y a_9_21# VDD VDD pfet_03p3 w=1.7u l=0.3u
X1 VDD A a_9_21# VDD pfet_03p3 w=1.7u l=0.3u
X2 VSS A a_9_21# VSS nfet_03p3 w=0.85u l=0.3u
X3 Y a_9_21# VSS VSS nfet_03p3 w=0.85u l=0.3u
.ends


******* EOF

* Copyright 2022 Google LLC
*
* Licensed under the Apache License, Version 2.0 (the "License");
* you may not use this file except in compliance with the License.
* You may obtain a copy of the License at
*
*      http://www.apache.org/licenses/LICENSE-2.0
*
* Unless required by applicable law or agreed to in writing, software
* distributed under the License is distributed on an "AS IS" BASIS,
* WITHOUT WARRANTIES OR CONDITIONS OF ANY KIND, either express or implied.
* See the License for the specific language governing permissions and
* limitations under the License.

* NGSPICE file created from gf180mcu_osu_sc_gp12t3v3__buf_2.ext - technology: gf180mcuC

.subckt gf180mcu_osu_sc_gp12t3v3__buf_2 A Y VDD VSS
X0 VDD a_9_21# Y VDD pfet_03p3 w=1.7u l=0.3u
X1 Y a_9_21# VDD VDD pfet_03p3 w=1.7u l=0.3u
X2 VDD A a_9_21# VDD pfet_03p3 w=1.7u l=0.3u
X3 VSS a_9_21# Y VSS nfet_03p3 w=0.85u l=0.3u
X4 VSS A a_9_21# VSS nfet_03p3 w=0.85u l=0.3u
X5 Y a_9_21# VSS VSS nfet_03p3 w=0.85u l=0.3u
.ends


******* EOF

* Copyright 2022 Google LLC
*
* Licensed under the Apache License, Version 2.0 (the "License");
* you may not use this file except in compliance with the License.
* You may obtain a copy of the License at
*
*      http://www.apache.org/licenses/LICENSE-2.0
*
* Unless required by applicable law or agreed to in writing, software
* distributed under the License is distributed on an "AS IS" BASIS,
* WITHOUT WARRANTIES OR CONDITIONS OF ANY KIND, either express or implied.
* See the License for the specific language governing permissions and
* limitations under the License.

* NGSPICE file created from gf180mcu_osu_sc_gp12t3v3__buf_4.ext - technology: gf180mcuC

.subckt gf180mcu_osu_sc_gp12t3v3__buf_4 A Y VDD VSS
X0 Y a_9_21# VDD VDD pfet_03p3 w=1.7u l=0.3u
X1 VDD a_9_21# Y VDD pfet_03p3 w=1.7u l=0.3u
X2 VDD a_9_21# Y VDD pfet_03p3 w=1.7u l=0.3u
X3 Y a_9_21# VDD VDD pfet_03p3 w=1.7u l=0.3u
X4 VDD A a_9_21# VDD pfet_03p3 w=1.7u l=0.3u
X5 VSS a_9_21# Y VSS nfet_03p3 w=0.85u l=0.3u
X6 VSS A a_9_21# VSS nfet_03p3 w=0.85u l=0.3u
X7 VSS a_9_21# Y VSS nfet_03p3 w=0.85u l=0.3u
X8 Y a_9_21# VSS VSS nfet_03p3 w=0.85u l=0.3u
X9 Y a_9_21# VSS VSS nfet_03p3 w=0.85u l=0.3u
.ends


******* EOF

* Copyright 2022 Google LLC
*
* Licensed under the Apache License, Version 2.0 (the "License");
* you may not use this file except in compliance with the License.
* You may obtain a copy of the License at
*
*      http://www.apache.org/licenses/LICENSE-2.0
*
* Unless required by applicable law or agreed to in writing, software
* distributed under the License is distributed on an "AS IS" BASIS,
* WITHOUT WARRANTIES OR CONDITIONS OF ANY KIND, either express or implied.
* See the License for the specific language governing permissions and
* limitations under the License.

* NGSPICE file created from gf180mcu_osu_sc_gp12t3v3__buf_8.ext - technology: gf180mcuC

.subckt gf180mcu_osu_sc_gp12t3v3__buf_8 A Y VDD VSS
X0 Y a_9_21# VDD VDD pfet_03p3 w=1.7u l=0.3u
X1 VDD a_9_21# Y VDD pfet_03p3 w=1.7u l=0.3u
X2 VDD a_9_21# Y VDD pfet_03p3 w=1.7u l=0.3u
X3 Y a_9_21# VDD VDD pfet_03p3 w=1.7u l=0.3u
X4 Y a_9_21# VSS VSS nfet_03p3 w=0.85u l=0.3u
X5 VDD A a_9_21# VDD pfet_03p3 w=1.7u l=0.3u
X6 VSS a_9_21# Y VSS nfet_03p3 w=0.85u l=0.3u
X7 VSS a_9_21# Y VSS nfet_03p3 w=0.85u l=0.3u
X8 VSS A a_9_21# VSS nfet_03p3 w=0.85u l=0.3u
X9 VSS a_9_21# Y VSS nfet_03p3 w=0.85u l=0.3u
X10 VSS a_9_21# Y VSS nfet_03p3 w=0.85u l=0.3u
X11 Y a_9_21# VSS VSS nfet_03p3 w=0.85u l=0.3u
X12 Y a_9_21# VSS VSS nfet_03p3 w=0.85u l=0.3u
X13 Y a_9_21# VSS VSS nfet_03p3 w=0.85u l=0.3u
X14 VDD a_9_21# Y VDD pfet_03p3 w=1.7u l=0.3u
X15 Y a_9_21# VDD VDD pfet_03p3 w=1.7u l=0.3u
X16 VDD a_9_21# Y VDD pfet_03p3 w=1.7u l=0.3u
X17 Y a_9_21# VDD VDD pfet_03p3 w=1.7u l=0.3u
.ends


******* EOF

* Copyright 2022 Google LLC
*
* Licensed under the Apache License, Version 2.0 (the "License");
* you may not use this file except in compliance with the License.
* You may obtain a copy of the License at
*
*      http://www.apache.org/licenses/LICENSE-2.0
*
* Unless required by applicable law or agreed to in writing, software
* distributed under the License is distributed on an "AS IS" BASIS,
* WITHOUT WARRANTIES OR CONDITIONS OF ANY KIND, either express or implied.
* See the License for the specific language governing permissions and
* limitations under the License.

* NGSPICE file created from gf180mcu_osu_sc_gp12t3v3__buf_16.ext - technology: gf180mcuC

.subckt gf180mcu_osu_sc_gp12t3v3__buf_16 A Y VDD VSS
X0 VDD a_9_21# Y VDD pfet_03p3 w=1.7u l=0.3u
X1 Y a_9_21# VDD VDD pfet_03p3 w=1.7u l=0.3u
X2 VSS a_9_21# Y VSS nfet_03p3 w=0.85u l=0.3u
X3 Y a_9_21# VDD VDD pfet_03p3 w=1.7u l=0.3u
X4 VDD a_9_21# Y VDD pfet_03p3 w=1.7u l=0.3u
X5 Y a_9_21# VSS VSS nfet_03p3 w=0.85u l=0.3u
X6 VDD a_9_21# Y VDD pfet_03p3 w=1.7u l=0.3u
X7 Y a_9_21# VDD VDD pfet_03p3 w=1.7u l=0.3u
X8 Y a_9_21# VSS VSS nfet_03p3 w=0.85u l=0.3u
X9 VDD A a_9_21# VDD pfet_03p3 w=1.7u l=0.3u
X10 VSS a_9_21# Y VSS nfet_03p3 w=0.85u l=0.3u
X11 VSS a_9_21# Y VSS nfet_03p3 w=0.85u l=0.3u
X12 VSS a_9_21# Y VSS nfet_03p3 w=0.85u l=0.3u
X13 VSS A a_9_21# VSS nfet_03p3 w=0.85u l=0.3u
X14 VSS a_9_21# Y VSS nfet_03p3 w=0.85u l=0.3u
X15 Y a_9_21# VSS VSS nfet_03p3 w=0.85u l=0.3u
X16 Y a_9_21# VSS VSS nfet_03p3 w=0.85u l=0.3u
X17 VSS a_9_21# Y VSS nfet_03p3 w=0.85u l=0.3u
X18 VSS a_9_21# Y VSS nfet_03p3 w=0.85u l=0.3u
X19 Y a_9_21# VSS VSS nfet_03p3 w=0.85u l=0.3u
X20 Y a_9_21# VDD VDD pfet_03p3 w=1.7u l=0.3u
X21 VDD a_9_21# Y VDD pfet_03p3 w=1.7u l=0.3u
X22 VDD a_9_21# Y VDD pfet_03p3 w=1.7u l=0.3u
X23 Y a_9_21# VSS VSS nfet_03p3 w=0.85u l=0.3u
X24 Y a_9_21# VSS VSS nfet_03p3 w=0.85u l=0.3u
X25 Y a_9_21# VSS VSS nfet_03p3 w=0.85u l=0.3u
X26 VDD a_9_21# Y VDD pfet_03p3 w=1.7u l=0.3u
X27 Y a_9_21# VDD VDD pfet_03p3 w=1.7u l=0.3u
X28 Y a_9_21# VDD VDD pfet_03p3 w=1.7u l=0.3u
X29 VDD a_9_21# Y VDD pfet_03p3 w=1.7u l=0.3u
X30 Y a_9_21# VDD VDD pfet_03p3 w=1.7u l=0.3u
X31 VDD a_9_21# Y VDD pfet_03p3 w=1.7u l=0.3u
X32 Y a_9_21# VDD VDD pfet_03p3 w=1.7u l=0.3u
X33 VSS a_9_21# Y VSS nfet_03p3 w=0.85u l=0.3u
C0 VDD Y 2.003100fF
.ends


******* EOF

* Copyright 2022 Google LLC
*
* Licensed under the Apache License, Version 2.0 (the "License");
* you may not use this file except in compliance with the License.
* You may obtain a copy of the License at
*
*      http://www.apache.org/licenses/LICENSE-2.0
*
* Unless required by applicable law or agreed to in writing, software
* distributed under the License is distributed on an "AS IS" BASIS,
* WITHOUT WARRANTIES OR CONDITIONS OF ANY KIND, either express or implied.
* See the License for the specific language governing permissions and
* limitations under the License.

* NGSPICE file created from gf180mcu_osu_sc_gp12t3v3__clkbuf_1.ext - technology: gf180mcuC

.subckt gf180mcu_osu_sc_gp12t3v3__clkbuf_1 A Y VDD VSS
X0 Y a_9_21# VDD VDD pfet_03p3 w=1.7u l=0.3u
X1 VDD A a_9_21# VDD pfet_03p3 w=1.7u l=0.3u
X2 VSS A a_9_21# VSS nfet_03p3 w=0.85u l=0.3u
X3 Y a_9_21# VSS VSS nfet_03p3 w=0.85u l=0.3u
.ends


******* EOF

* Copyright 2022 Google LLC
*
* Licensed under the Apache License, Version 2.0 (the "License");
* you may not use this file except in compliance with the License.
* You may obtain a copy of the License at
*
*      http://www.apache.org/licenses/LICENSE-2.0
*
* Unless required by applicable law or agreed to in writing, software
* distributed under the License is distributed on an "AS IS" BASIS,
* WITHOUT WARRANTIES OR CONDITIONS OF ANY KIND, either express or implied.
* See the License for the specific language governing permissions and
* limitations under the License.

* NGSPICE file created from gf180mcu_osu_sc_gp12t3v3__clkbuf_2.ext - technology: gf180mcuC

.subckt gf180mcu_osu_sc_gp12t3v3__clkbuf_2 A Y VDD VSS
X0 VDD a_9_21# Y VDD pfet_03p3 w=1.7u l=0.3u
X1 Y a_9_21# VDD VDD pfet_03p3 w=1.7u l=0.3u
X2 VDD A a_9_21# VDD pfet_03p3 w=1.7u l=0.3u
X3 VSS a_9_21# Y VSS nfet_03p3 w=0.85u l=0.3u
X4 VSS A a_9_21# VSS nfet_03p3 w=0.85u l=0.3u
X5 Y a_9_21# VSS VSS nfet_03p3 w=0.85u l=0.3u
.ends


******* EOF

* Copyright 2022 Google LLC
*
* Licensed under the Apache License, Version 2.0 (the "License");
* you may not use this file except in compliance with the License.
* You may obtain a copy of the License at
*
*      http://www.apache.org/licenses/LICENSE-2.0
*
* Unless required by applicable law or agreed to in writing, software
* distributed under the License is distributed on an "AS IS" BASIS,
* WITHOUT WARRANTIES OR CONDITIONS OF ANY KIND, either express or implied.
* See the License for the specific language governing permissions and
* limitations under the License.

* NGSPICE file created from gf180mcu_osu_sc_gp12t3v3__clkbuf_4.ext - technology: gf180mcuC

.subckt gf180mcu_osu_sc_gp12t3v3__clkbuf_4 A Y VDD VSS
X0 Y a_9_21# VDD VDD pfet_03p3 w=1.7u l=0.3u
X1 VDD a_9_21# Y VDD pfet_03p3 w=1.7u l=0.3u
X2 VDD a_9_21# Y VDD pfet_03p3 w=1.7u l=0.3u
X3 Y a_9_21# VDD VDD pfet_03p3 w=1.7u l=0.3u
X4 VDD A a_9_21# VDD pfet_03p3 w=1.7u l=0.3u
X5 VSS a_9_21# Y VSS nfet_03p3 w=0.85u l=0.3u
X6 VSS A a_9_21# VSS nfet_03p3 w=0.85u l=0.3u
X7 VSS a_9_21# Y VSS nfet_03p3 w=0.85u l=0.3u
X8 Y a_9_21# VSS VSS nfet_03p3 w=0.85u l=0.3u
X9 Y a_9_21# VSS VSS nfet_03p3 w=0.85u l=0.3u
.ends


******* EOF

* Copyright 2022 Google LLC
*
* Licensed under the Apache License, Version 2.0 (the "License");
* you may not use this file except in compliance with the License.
* You may obtain a copy of the License at
*
*      http://www.apache.org/licenses/LICENSE-2.0
*
* Unless required by applicable law or agreed to in writing, software
* distributed under the License is distributed on an "AS IS" BASIS,
* WITHOUT WARRANTIES OR CONDITIONS OF ANY KIND, either express or implied.
* See the License for the specific language governing permissions and
* limitations under the License.

* NGSPICE file created from gf180mcu_osu_sc_gp12t3v3__clkbuf_8.ext - technology: gf180mcuC

.subckt gf180mcu_osu_sc_gp12t3v3__clkbuf_8 A Y VDD VSS
X0 Y a_9_21# VDD VDD pfet_03p3 w=1.7u l=0.3u
X1 VDD a_9_21# Y VDD pfet_03p3 w=1.7u l=0.3u
X2 VDD a_9_21# Y VDD pfet_03p3 w=1.7u l=0.3u
X3 Y a_9_21# VDD VDD pfet_03p3 w=1.7u l=0.3u
X4 Y a_9_21# VSS VSS nfet_03p3 w=0.85u l=0.3u
X5 VDD A a_9_21# VDD pfet_03p3 w=1.7u l=0.3u
X6 VSS a_9_21# Y VSS nfet_03p3 w=0.85u l=0.3u
X7 VSS a_9_21# Y VSS nfet_03p3 w=0.85u l=0.3u
X8 VSS A a_9_21# VSS nfet_03p3 w=0.85u l=0.3u
X9 VSS a_9_21# Y VSS nfet_03p3 w=0.85u l=0.3u
X10 VSS a_9_21# Y VSS nfet_03p3 w=0.85u l=0.3u
X11 Y a_9_21# VSS VSS nfet_03p3 w=0.85u l=0.3u
X12 Y a_9_21# VSS VSS nfet_03p3 w=0.85u l=0.3u
X13 Y a_9_21# VSS VSS nfet_03p3 w=0.85u l=0.3u
X14 VDD a_9_21# Y VDD pfet_03p3 w=1.7u l=0.3u
X15 Y a_9_21# VDD VDD pfet_03p3 w=1.7u l=0.3u
X16 VDD a_9_21# Y VDD pfet_03p3 w=1.7u l=0.3u
X17 Y a_9_21# VDD VDD pfet_03p3 w=1.7u l=0.3u
.ends


******* EOF

* Copyright 2022 Google LLC
*
* Licensed under the Apache License, Version 2.0 (the "License");
* you may not use this file except in compliance with the License.
* You may obtain a copy of the License at
*
*      http://www.apache.org/licenses/LICENSE-2.0
*
* Unless required by applicable law or agreed to in writing, software
* distributed under the License is distributed on an "AS IS" BASIS,
* WITHOUT WARRANTIES OR CONDITIONS OF ANY KIND, either express or implied.
* See the License for the specific language governing permissions and
* limitations under the License.

* NGSPICE file created from gf180mcu_osu_sc_gp12t3v3__clkbuf_16.ext - technology: gf180mcuC

.subckt gf180mcu_osu_sc_gp12t3v3__clkbuf_16 A Y VDD VSS
X0 VDD a_9_21# Y VDD pfet_03p3 w=1.7u l=0.3u
X1 Y a_9_21# VDD VDD pfet_03p3 w=1.7u l=0.3u
X2 VSS a_9_21# Y VSS nfet_03p3 w=0.85u l=0.3u
X3 Y a_9_21# VDD VDD pfet_03p3 w=1.7u l=0.3u
X4 VDD a_9_21# Y VDD pfet_03p3 w=1.7u l=0.3u
X5 Y a_9_21# VSS VSS nfet_03p3 w=0.85u l=0.3u
X6 VDD a_9_21# Y VDD pfet_03p3 w=1.7u l=0.3u
X7 Y a_9_21# VDD VDD pfet_03p3 w=1.7u l=0.3u
X8 Y a_9_21# VSS VSS nfet_03p3 w=0.85u l=0.3u
X9 VDD A a_9_21# VDD pfet_03p3 w=1.7u l=0.3u
X10 VSS a_9_21# Y VSS nfet_03p3 w=0.85u l=0.3u
X11 VSS a_9_21# Y VSS nfet_03p3 w=0.85u l=0.3u
X12 VSS a_9_21# Y VSS nfet_03p3 w=0.85u l=0.3u
X13 VSS A a_9_21# VSS nfet_03p3 w=0.85u l=0.3u
X14 VSS a_9_21# Y VSS nfet_03p3 w=0.85u l=0.3u
X15 Y a_9_21# VSS VSS nfet_03p3 w=0.85u l=0.3u
X16 Y a_9_21# VSS VSS nfet_03p3 w=0.85u l=0.3u
X17 VSS a_9_21# Y VSS nfet_03p3 w=0.85u l=0.3u
X18 VSS a_9_21# Y VSS nfet_03p3 w=0.85u l=0.3u
X19 Y a_9_21# VSS VSS nfet_03p3 w=0.85u l=0.3u
X20 Y a_9_21# VDD VDD pfet_03p3 w=1.7u l=0.3u
X21 VDD a_9_21# Y VDD pfet_03p3 w=1.7u l=0.3u
X22 VDD a_9_21# Y VDD pfet_03p3 w=1.7u l=0.3u
X23 Y a_9_21# VSS VSS nfet_03p3 w=0.85u l=0.3u
X24 Y a_9_21# VSS VSS nfet_03p3 w=0.85u l=0.3u
X25 Y a_9_21# VSS VSS nfet_03p3 w=0.85u l=0.3u
X26 VDD a_9_21# Y VDD pfet_03p3 w=1.7u l=0.3u
X27 Y a_9_21# VDD VDD pfet_03p3 w=1.7u l=0.3u
X28 Y a_9_21# VDD VDD pfet_03p3 w=1.7u l=0.3u
X29 VDD a_9_21# Y VDD pfet_03p3 w=1.7u l=0.3u
X30 Y a_9_21# VDD VDD pfet_03p3 w=1.7u l=0.3u
X31 VDD a_9_21# Y VDD pfet_03p3 w=1.7u l=0.3u
X32 Y a_9_21# VDD VDD pfet_03p3 w=1.7u l=0.3u
X33 VSS a_9_21# Y VSS nfet_03p3 w=0.85u l=0.3u
C0 VDD Y 2.003150fF
.ends


******* EOF

* Copyright 2022 Google LLC
*
* Licensed under the Apache License, Version 2.0 (the "License");
* you may not use this file except in compliance with the License.
* You may obtain a copy of the License at
*
*      http://www.apache.org/licenses/LICENSE-2.0
*
* Unless required by applicable law or agreed to in writing, software
* distributed under the License is distributed on an "AS IS" BASIS,
* WITHOUT WARRANTIES OR CONDITIONS OF ANY KIND, either express or implied.
* See the License for the specific language governing permissions and
* limitations under the License.

* NGSPICE file created from gf180mcu_osu_sc_gp12t3v3__clkinv_1.ext - technology: gf180mcuC

.subckt gf180mcu_osu_sc_gp12t3v3__clkinv_1 A Y VDD VSS
X0 Y A VDD VDD pfet_03p3 w=1.7u l=0.3u
X1 Y A VSS VSS nfet_03p3 w=0.85u l=0.3u
.ends


******* EOF

* Copyright 2022 Google LLC
*
* Licensed under the Apache License, Version 2.0 (the "License");
* you may not use this file except in compliance with the License.
* You may obtain a copy of the License at
*
*      http://www.apache.org/licenses/LICENSE-2.0
*
* Unless required by applicable law or agreed to in writing, software
* distributed under the License is distributed on an "AS IS" BASIS,
* WITHOUT WARRANTIES OR CONDITIONS OF ANY KIND, either express or implied.
* See the License for the specific language governing permissions and
* limitations under the License.

* NGSPICE file created from gf180mcu_osu_sc_gp12t3v3__clkinv_2.ext - technology: gf180mcuC

.subckt gf180mcu_osu_sc_gp12t3v3__clkinv_2 A Y VDD VSS
X0 VDD A Y VDD pfet_03p3 w=1.7u l=0.3u
X1 Y A VDD VDD pfet_03p3 w=1.7u l=0.3u
X2 Y A VSS VSS nfet_03p3 w=0.85u l=0.3u
X3 VSS A Y VSS nfet_03p3 w=0.85u l=0.3u
.ends


******* EOF

* Copyright 2022 Google LLC
*
* Licensed under the Apache License, Version 2.0 (the "License");
* you may not use this file except in compliance with the License.
* You may obtain a copy of the License at
*
*      http://www.apache.org/licenses/LICENSE-2.0
*
* Unless required by applicable law or agreed to in writing, software
* distributed under the License is distributed on an "AS IS" BASIS,
* WITHOUT WARRANTIES OR CONDITIONS OF ANY KIND, either express or implied.
* See the License for the specific language governing permissions and
* limitations under the License.

* NGSPICE file created from gf180mcu_osu_sc_gp12t3v3__clkinv_4.ext - technology: gf180mcuC

.subckt gf180mcu_osu_sc_gp12t3v3__clkinv_4 A Y VDD VSS
X0 VDD A Y VDD pfet_03p3 w=1.7u l=0.3u
X1 Y A VDD VDD pfet_03p3 w=1.7u l=0.3u
X2 VDD A Y VDD pfet_03p3 w=1.7u l=0.3u
X3 Y A VDD VDD pfet_03p3 w=1.7u l=0.3u
X4 Y A VSS VSS nfet_03p3 w=0.85u l=0.3u
X5 Y A VSS VSS nfet_03p3 w=0.85u l=0.3u
X6 VSS A Y VSS nfet_03p3 w=0.85u l=0.3u
X7 VSS A Y VSS nfet_03p3 w=0.85u l=0.3u
.ends


******* EOF

* Copyright 2022 Google LLC
*
* Licensed under the Apache License, Version 2.0 (the "License");
* you may not use this file except in compliance with the License.
* You may obtain a copy of the License at
*
*      http://www.apache.org/licenses/LICENSE-2.0
*
* Unless required by applicable law or agreed to in writing, software
* distributed under the License is distributed on an "AS IS" BASIS,
* WITHOUT WARRANTIES OR CONDITIONS OF ANY KIND, either express or implied.
* See the License for the specific language governing permissions and
* limitations under the License.

* NGSPICE file created from gf180mcu_osu_sc_gp12t3v3__clkinv_8.ext - technology: gf180mcuC

.subckt gf180mcu_osu_sc_gp12t3v3__clkinv_8 A Y VDD VSS
X0 VDD A Y VDD pfet_03p3 w=1.7u l=0.3u
X1 Y A VDD VDD pfet_03p3 w=1.7u l=0.3u
X2 Y A VDD VDD pfet_03p3 w=1.7u l=0.3u
X3 VDD A Y VDD pfet_03p3 w=1.7u l=0.3u
X4 VSS A Y VSS nfet_03p3 w=0.85u l=0.3u
X5 Y A VDD VDD pfet_03p3 w=1.7u l=0.3u
X6 Y A VSS VSS nfet_03p3 w=0.85u l=0.3u
X7 Y A VSS VSS nfet_03p3 w=0.85u l=0.3u
X8 Y A VSS VSS nfet_03p3 w=0.85u l=0.3u
X9 Y A VSS VSS nfet_03p3 w=0.85u l=0.3u
X10 VSS A Y VSS nfet_03p3 w=0.85u l=0.3u
X11 VSS A Y VSS nfet_03p3 w=0.85u l=0.3u
X12 VSS A Y VSS nfet_03p3 w=0.85u l=0.3u
X13 VDD A Y VDD pfet_03p3 w=1.7u l=0.3u
X14 Y A VDD VDD pfet_03p3 w=1.7u l=0.3u
X15 VDD A Y VDD pfet_03p3 w=1.7u l=0.3u
.ends


******* EOF

* Copyright 2022 Google LLC
*
* Licensed under the Apache License, Version 2.0 (the "License");
* you may not use this file except in compliance with the License.
* You may obtain a copy of the License at
*
*      http://www.apache.org/licenses/LICENSE-2.0
*
* Unless required by applicable law or agreed to in writing, software
* distributed under the License is distributed on an "AS IS" BASIS,
* WITHOUT WARRANTIES OR CONDITIONS OF ANY KIND, either express or implied.
* See the License for the specific language governing permissions and
* limitations under the License.

* NGSPICE file created from gf180mcu_osu_sc_gp12t3v3__clkinv_16.ext - technology: gf180mcuC

.subckt gf180mcu_osu_sc_gp12t3v3__clkinv_16 A Y VDD VSS
X0 Y A VDD VDD pfet_03p3 w=1.7u l=0.3u
X1 VDD A Y VDD pfet_03p3 w=1.7u l=0.3u
X2 Y A VSS VSS nfet_03p3 w=0.85u l=0.3u
X3 VDD A Y VDD pfet_03p3 w=1.7u l=0.3u
X4 Y A VDD VDD pfet_03p3 w=1.7u l=0.3u
X5 VSS A Y VSS nfet_03p3 w=0.85u l=0.3u
X6 Y A VDD VDD pfet_03p3 w=1.7u l=0.3u
X7 VDD A Y VDD pfet_03p3 w=1.7u l=0.3u
X8 VSS A Y VSS nfet_03p3 w=0.85u l=0.3u
X9 Y A VDD VDD pfet_03p3 w=1.7u l=0.3u
X10 Y A VSS VSS nfet_03p3 w=0.85u l=0.3u
X11 Y A VSS VSS nfet_03p3 w=0.85u l=0.3u
X12 Y A VSS VSS nfet_03p3 w=0.85u l=0.3u
X13 Y A VSS VSS nfet_03p3 w=0.85u l=0.3u
X14 VSS A Y VSS nfet_03p3 w=0.85u l=0.3u
X15 VSS A Y VSS nfet_03p3 w=0.85u l=0.3u
X16 Y A VSS VSS nfet_03p3 w=0.85u l=0.3u
X17 Y A VSS VSS nfet_03p3 w=0.85u l=0.3u
X18 VSS A Y VSS nfet_03p3 w=0.85u l=0.3u
X19 VDD A Y VDD pfet_03p3 w=1.7u l=0.3u
X20 Y A VDD VDD pfet_03p3 w=1.7u l=0.3u
X21 VSS A Y VSS nfet_03p3 w=0.85u l=0.3u
X22 VSS A Y VSS nfet_03p3 w=0.85u l=0.3u
X23 VSS A Y VSS nfet_03p3 w=0.85u l=0.3u
X24 Y A VDD VDD pfet_03p3 w=1.7u l=0.3u
X25 VDD A Y VDD pfet_03p3 w=1.7u l=0.3u
X26 VDD A Y VDD pfet_03p3 w=1.7u l=0.3u
X27 Y A VDD VDD pfet_03p3 w=1.7u l=0.3u
X28 VDD A Y VDD pfet_03p3 w=1.7u l=0.3u
X29 Y A VDD VDD pfet_03p3 w=1.7u l=0.3u
X30 VDD A Y VDD pfet_03p3 w=1.7u l=0.3u
X31 Y A VSS VSS nfet_03p3 w=0.85u l=0.3u
.ends


******* EOF

* Copyright 2022 Google LLC
*
* Licensed under the Apache License, Version 2.0 (the "License");
* you may not use this file except in compliance with the License.
* You may obtain a copy of the License at
*
*      http://www.apache.org/licenses/LICENSE-2.0
*
* Unless required by applicable law or agreed to in writing, software
* distributed under the License is distributed on an "AS IS" BASIS,
* WITHOUT WARRANTIES OR CONDITIONS OF ANY KIND, either express or implied.
* See the License for the specific language governing permissions and
* limitations under the License.

* NGSPICE file created from gf180mcu_osu_sc_gp12t3v3__dff_1.ext - technology: gf180mcuC

.subckt gf180mcu_osu_sc_gp12t3v3__dff_1 D Q QN CLK VDD VSS
X0 a_19_16# CLK a_42_111# VDD pfet_03p3 w=1.7u l=0.3u
X1 a_75_111# a_52_16# a_19_16# VDD pfet_03p3 w=1.7u l=0.3u
X2 a_135_70# a_114_21# VDD VDD pfet_03p3 w=1.7u l=0.3u
X3 Q QN VSS VSS nfet_03p3 w=0.85u l=0.3u
X4 a_131_21# a_52_16# a_114_21# VSS nfet_03p3 w=0.85u l=0.3u
X5 a_42_111# D VDD VDD pfet_03p3 w=1.7u l=0.3u
X6 a_135_70# a_114_21# VSS VSS nfet_03p3 w=0.85u l=0.3u
X7 VDD a_19_16# a_9_21# VDD pfet_03p3 w=1.7u l=0.3u
X8 a_75_21# CLK a_19_16# VSS nfet_03p3 w=0.85u l=0.3u
X9 VSS a_135_70# a_131_21# VSS nfet_03p3 w=0.85u l=0.3u
X10 a_19_16# a_52_16# a_42_21# VSS nfet_03p3 w=0.85u l=0.3u
X11 VSS a_19_16# a_9_21# VSS nfet_03p3 w=0.85u l=0.3u
X12 a_52_16# CLK VDD VDD pfet_03p3 w=1.7u l=0.3u
X13 VDD a_135_70# a_131_111# VDD pfet_03p3 w=1.7u l=0.3u
X14 a_131_111# CLK a_114_21# VDD pfet_03p3 w=1.7u l=0.3u
X15 VSS a_135_70# QN VSS nfet_03p3 w=0.85u l=0.3u
X16 a_114_21# a_52_16# a_103_111# VDD pfet_03p3 w=1.7u l=0.3u
X17 a_114_21# CLK a_103_21# VSS nfet_03p3 w=0.85u l=0.3u
X18 a_52_16# CLK VSS VSS nfet_03p3 w=0.85u l=0.3u
X19 a_42_21# D VSS VSS nfet_03p3 w=0.85u l=0.3u
X20 VDD a_9_21# a_75_111# VDD pfet_03p3 w=1.7u l=0.3u
X21 a_103_111# a_9_21# VDD VDD pfet_03p3 w=1.7u l=0.3u
X22 a_103_21# a_9_21# VSS VSS nfet_03p3 w=0.85u l=0.3u
X23 Q QN VDD VDD pfet_03p3 w=1.7u l=0.3u
X24 VSS a_9_21# a_75_21# VSS nfet_03p3 w=0.85u l=0.3u
X25 VDD a_135_70# QN VDD pfet_03p3 w=1.7u l=0.3u
.ends


******* EOF

* Copyright 2022 Google LLC
*
* Licensed under the Apache License, Version 2.0 (the "License");
* you may not use this file except in compliance with the License.
* You may obtain a copy of the License at
*
*      http://www.apache.org/licenses/LICENSE-2.0
*
* Unless required by applicable law or agreed to in writing, software
* distributed under the License is distributed on an "AS IS" BASIS,
* WITHOUT WARRANTIES OR CONDITIONS OF ANY KIND, either express or implied.
* See the License for the specific language governing permissions and
* limitations under the License.

* NGSPICE file created from gf180mcu_osu_sc_gp12t3v3__dffn_1.ext - technology: gf180mcuC

.subckt gf180mcu_osu_sc_gp12t3v3__dffn_1 Q QN D CLK VDD VSS
X0 a_19_16# a_52_83# a_42_111# VDD pfet_03p3 w=1.7u l=0.3u